/batch
/config,noeldb,1     ! force off writing results to database
*get,_wallstrt,active,,time,wall
! ANSYS input file written by Workbench version 2024 R1
! File used for geometry attach: C:\Users\qnreo\OneDrive\Desktop\ANSYS\SPRING_files\dp0\SYS\DM\SYS.agdb
/title,SPRING--Static Structural (A5)
! ****** Begin Custom Load Command Snippet ******
/COM, ACT Extensions:
/COM,     LSDYNA, 2024.1
/COM,     5f463412-bd3e-484b-87e7-cbc0a665e474, wbex
/COM,/COM,     ANSYSMotion, 2024.1
/COM,     20180725-3f81-49eb-9f31-41364844c769, wbex
/COM,
! ****** End   Custom Load Command Snippet ******
*DIM,_wb_ProjectScratch_dir,string,248
_wb_ProjectScratch_dir(1) = 'C:\Users\qnreo\OneDrive\Desktop\ANSYS\_ProjectScratch\ScrB508\'
*DIM,_wb_SolverFiles_dir,string,248
_wb_SolverFiles_dir(1) = 'C:\Users\qnreo\OneDrive\Desktop\ANSYS\SPRING_files\dp0\SYS\MECH\'
*DIM,_wb_userfiles_dir,string,248
_wb_userfiles_dir(1) = 'C:\Users\qnreo\OneDrive\Desktop\ANSYS\SPRING_files\user_files\'
/com,--- Data in consistent NMM units. See Solving Units in the help system for more information.
/units,MPA
/nopr
/wb,file,start              !  signify a WB generated input file
/prep7
! Turn off shape checking because checks already performed inside WB mesher.
! See help system for more information.
SHPP,OFF,,NOWARN
/nolist
etcon,set             ! allow ANSYS to choose best KEYOP's for 180x elements, resets any applicable keyopt to MAPDL defaults
/com,*********** Nodes for the whole assembly ***********
nblock,3,,20079
(1i9,3e20.9e3)
        1    -3.055395566E-01     1.163114040E+00    -1.784920359E+00
        2    -1.241866426E+00     1.116399415E+00    -1.728638182E+00
        3    -1.614804529E+00     2.423772348E-01    -1.706221043E+00
        4    -9.884609210E-01    -5.314144723E-01    -1.743870270E+00
        5     9.965048867E-01    -8.289193256E-01    -1.863185652E+00
        6     1.300276728E+00     1.785366531E-02    -1.881445238E+00
        7     6.119336130E-01     7.437649277E-01    -1.840069250E+00
        8    -1.189189574E-02    -9.323312332E-01    -1.802571386E+00
        9    -4.659086655E-01     1.318916995E+00    -3.561512426E+00
       10    -1.397178770E+00     1.272202376E+00    -3.449210679E+00
       11    -1.768102768E+00     3.981802127E-01    -3.404480998E+00
       12    -1.145141817E+00    -3.756115081E-01    -3.479603784E+00
       13     8.291039036E-01    -6.731163731E-01    -3.717677833E+00
       14     1.131235182E+00     1.736566232E-01    -3.754111806E+00
       15     4.466095612E-01     8.995678829E-01    -3.671552887E+00
       16    -1.738468902E-01    -7.765282808E-01    -3.596732121E+00
       17    -7.333989223E-01     1.477818186E+00    -5.330383014E+00
       18    -1.656234514E+00     1.431103575E+00    -5.162305171E+00
       19    -2.023799052E+00     5.570814309E-01    -5.095359923E+00
       20    -1.406480259E+00    -2.167103057E-01    -5.207793399E+00
! ... 18235 like lines cut
/wb,elem,start            !  set before creation of elements
/com,*********** Elements for Body 1 "Solid" ***********
et,1,186
keyo,1,2,1          ! set full integration on SOLID186
eblock,19,solid,,3454
(19i9)
        1        1        1        1        0        0        0        0       20        0        1        1        4        8        7     2512     2509     2505     2506
     5042     5055     5068     5043    13198    13189    13187    13192     5045     5057     5073     5070
        1        1        1        1        0        0        0        0       20        0        2        1        7        8        4        9       15       16       12
     5043     5068     5055     5042     5077     5096     5086     5076     5044     5069     5072     5056
        1        1        1        1        0        0        0        0       20        0        3        9       15       16       12       17       23       24       20
     5077     5096     5086     5076     5103     5122     5112     5102     5078     5097     5099     5087
        1        1        1        1        0        0        0        0       20        0        4       17       23       24       20       25       31       32       28
     5103     5122     5112     5102     5129     5148     5138     5128     5104     5123     5125     5113
        1        1        1        1        0        0        0        0       20        0        5       25       31       32       28       33       39       40       36
     5129     5148     5138     5128     5155     5174     5164     5154     5130     5149     5151     5139
        1        1        1        1        0        0        0        0       20        0        6       33       39       40       36       41       47       48       44
     5155     5174     5164     5154     5181     5200     5190     5180     5156     5175     5177     5165
        1        1        1        1        0        0        0        0       20        0        7       41       47       48       44       49       55       56       52
     5181     5200     5190     5180     5207     5226     5216     5206     5182     5201     5203     5191
        1        1        1        1        0        0        0        0       20        0        8       49       55       56       52       57       63       64       60
     5207     5226     5216     5206     5233     5252     5242     5232     5208     5227     5229     5217
        1        1        1        1        0        0        0        0       20        0        9       57       63       64       60       65       71       72       68
     5233     5252     5242     5232     5259     5278     5268     5258     5234     5253     5255     5243
        1        1        1        1        0        0        0        0       20        0       10       65       71       72       68       73       79       80       76
     5259     5278     5268     5258     5285     5304     5294     5284     5260     5279     5281     5269
! ... 6889 like lines cut
!Material Id = {7B50C00B-2702-480A-8B67-2E9FE6B2F963}
/wb,elem,end               !  done creating elements
/com,*********** Send User Defined Coordinate System(s) ***********
csys,0
toffst,273.15,  ! Temperature offset from absolute zero
/com,*********** Set Reference Temperature ***********
tref,22.
/wb,mat,start              !  starting to send materials
/com,*********** Send Materials ***********
Temperature = 'TEMP' ! Temperature
MP,DENS,1,7.85e-09,	! tonne mm^-3
MP,ALPX,1,1.2e-05,	! C^-1
MP,C,1,434000000,	! mm^2 s^-2 C^-1
MP,KXX,1,60.5,	! tonne mm s^-3 C^-1
MP,RSVX,1,0.00017,	! ohm mm
MP,EX,1,208000,	! tonne s^-2 mm^-1
MP,NUXY,1,0.3,
MP,MURX,1,10000,
MP,UVID,1,7630bb4b-13b4-41fd-89af-277720d27143
MP,UMID,1,45729bf2-c502-46c0-b475-edb4a87bfdba

/wb,mat,end                !  done sending materials
!************************* Model Summary ********************
!Solid,	G80,	matid,	1
!************************* End Model Summary ********************
! get the diagonal of the bounding box. Needed later for other things
*get,_xmin,node,,mnloc,x
*get,_ymin,node,,mnloc,y
*get,_zmin,node,,mnloc,z
*get,_xmax,node,,mxloc,x
*get,_ymax,node,,mxloc,y
*get,_zmax,node,,mxloc,z
_ASMDIAG=(_xmax-_xmin)*(_xmax-_xmin)+(_ymax-_ymin)*(_ymax-_ymin)+(_zmax-_zmin)*(_zmax-_zmin)
_ASMDIAG=SQRT(_ASMDIAG)
/wb,contact,start          !  starting to send contact
/wb,contact,end            !  done creating contacts
/golist
/wb,load,start             !  starting to send loads
/com,*********** Fixed Supports ***********
CMBLOCK,_FIXEDSU,NODE,       42
(8i10)
      2513      2514      2515      2516      2517      2518      2519      2520
      2521      2522      2523      2524      2525      2526      2527      2528
     13205     13206     13207     13208     13209     13210     13211     13212
     13213     13214     13215     13216     13217     13218     13219     13220
     13221     13222     13223     13224     13226     13228     13230     13232
     13234     13236
cmsel,s,_FIXEDSU
d,all,all
nsel,all
/com,*********** Define Pressure Vector Using Surface Effect Elements ***********
local,12,0,0.,0.,0.,0.,0.,0.
csys,0
et,2,154
mat,2
eblock,10,,,11
(15i9)
     5989        2        2        2       12     2509     2505     2506     2512    13189    13187    13192    13198
     5990        2        2        2       12     5035     2512     2506     4720    13204    13192    13193    17935
     5991        2        2        2       12     5036     2511     2512     5035    13203    13202    13204    18250
     5992        2        2        2       12     2512     2511     2510     2509    13202    13200    13197    13198
     5993        2        2        2       12     5036     5037     2510     2511    18251    13201    13200    13203
     5994        2        2        2       12     5037     5038     2509     2510    18252    13199    13197    13201
     5995        2        2        2       12     5038     5039     2505     2509    18253    13190    13189    13199
     5996        2        2        2       12     2506     2505     2508     2507    13187    13188    13194    13191
     5997        2        2        2       12     5039     5040     2508     2505    18254    13196    13188    13190
     5998        2        2        2       12     5040     5034     2507     2508    18249    13195    13194    13196
     5999        2        2        2       12     5034     4720     2506     2507    17934    13193    13191    13195
-1
esel,s,type,,2
keyop,2,2,1                ! Apply load in local coordinate system
keyop,2,7,0                ! Use deformed area for application of load
esel,all
/gst,on,on
fini
*get,_numnode,node,0,count
*get,_numelem,elem,0,count
*get, _MAXELEMNUM, elem, 0, NUM, MAX
*get, _MAXNODENUM, node, 0, NUM, MAX
*get, _MAXELEMTYPE, etyp, 0, NUM, MAX
*get, _MAXREALCONST, rcon, 0, NUM, MAX
/go
/wb,load,end               !  done creating loads
/com,--- Number of total nodes = %_numnode%
/com,--- Number of contact elements = 11
/com,--- Number of spring elements = 0
/com,--- Number of bearing elements = 0
/com,--- Number of solid elements = 3454
/com,--- Number of condensed parts = 0
/com,--- Number of total elements = %_numelem%
*get,_wallbsol,active,,time,wall
/com,****************************************************************************
/com,*************************    SOLUTION       ********************************
/com,****************************************************************************
/solu
antype,0                   ! static analysis
_thickRatio=  1     ! Ratio of thick parts in the model
eqsl,pcg,1e-8,,,,,,1
cntr,print,1               ! print out contact info and also make no initial contact an error
cncheck,dmp		!	Enable program controlled contact splitting for distributed memory parallel run
dmpoption,emat,no             ! Don't combine emat file for DANSYS
dmpoption,esav,no             ! Don't combine esav file for DANSYS
nldiag,cont,iter           ! print out contact info each equilibrium iteration
rescontrol,,none                 ! Do not keep any restart files
/com,****************************************************
/com,******************* SOLVE FOR LS 1 OF 1 ****************
esel,s,type,,2
nsle
sfe,all,1,pres,1,0.
sfe,all,2,pres,1,-10.
sfe,all,3,pres,1,0.
nsel,all
esel,all
/nopr
/gopr
nsub,1,1,1
time,1.
outres,erase
outres,all,none
outres,nsol,all,
outres,rsol,all
outres,eangl,all
outres,etmp,all
outres,veng,all
outres,strs,all,
outres,epel,all,
outres,eppl,all,
outres,cont,all,
! *********** WB SOLVE COMMAND ***********
! check interactive state
*get,ANSINTER_,active,,int
*if,ANSINTER_,ne,0,then
/eof
*endif
solve
/com *************** Write FE CONNECTORS ********* 
CEWRITE,file,ce,,INTE
/com,****************************************************
/com,*************** FINISHED SOLVE FOR LS 1 *************
*get,_wallasol,active,,time,wall
/nopr
*get,_numnode,node,0,count
*get,_numelem,elem,0,count
*get, _MAXELEMNUM, elem, 0, NUM, MAX
*get, _MAXNODENUM, node, 0, NUM, MAX,,,INTERNAL
*get, _MAXELEMTYPE, etyp, 0, NUM, MAX
*get, _MAXREALCONST, rcon, 0, NUM, MAX
*get,_NSOLTHREADS,active,0,ntfs
*get,_NSOLPROCESSES,active,0,npfs
/gopr
*get,_PCGITER,active,,solu,cgiter
/post1
xmlo,ENCODING,ISO-8859-1
xmlo,parm
/xml,parm,xml
fini
/gopr
*get,_walldone,active,,time,wall
_preptime=(_wallbsol-_wallstrt)*3600
_solvtime=(_wallasol-_wallbsol)*3600
_posttime=(_walldone-_wallasol)*3600
_totaltim=(_walldone-_wallstrt)*3600
*get,_dlbratio,active,0,solu,dlbr
*get,_combtime,active,0,solu,comb
*get,_ssmode,active,0,solu,ssmm
*get,_ndofs,active,0,solu,ndof
*get,_sol_end_time,active,0,set,time
*if,_sol_end_time,eq,1.000000,then
/fclean				!clean distributed files
*endif
/com,--- Total number of nodes = %_numnode%
/com,--- Total number of elements = %_numelem%
/com,--- Element load balance ratio = %_dlbratio%
/com,--- Time to combine distributed files = %_combtime%
/com,--- Sparse memory mode = %_ssmode%
/com,--- Number of DOF = %_ndofs%
/wb,file,end               ! done with WB generated input
