/batch
/config,noeldb,1     ! force off writing results to database
*get,_wallstrt,active,,time,wall
! ANSYS input file written by Workbench version 2024 R1
! File used for geometry attach: C:\Users\qnreo\AppData\Local\Temp\WB_qnreo_12852_2\wbnew_files\dp0\SYS\DM\SYS.agdb
/title,wbnew--Static Structural (A5)
! ****** Begin Custom Load Command Snippet ******
/COM, ACT Extensions:
/COM,     LSDYNA, 2024.1
/COM,     5f463412-bd3e-484b-87e7-cbc0a665e474, wbex
/COM,/COM,     ANSYSMotion, 2024.1
/COM,     20180725-3f81-49eb-9f31-41364844c769, wbex
/COM,
! ****** End   Custom Load Command Snippet ******
*DIM,_wb_ProjectScratch_dir,string,248
_wb_ProjectScratch_dir(1) = 'C:\Users\qnreo\AppData\Local\Temp\WB_qnreo_12852_2\_ProjectScratch\Scr161D\'
*DIM,_wb_SolverFiles_dir,string,248
_wb_SolverFiles_dir(1) = 'C:\Users\qnreo\AppData\Local\Temp\WB_qnreo_12852_2\wbnew_files\dp0\SYS\MECH\'
*DIM,_wb_userfiles_dir,string,248
_wb_userfiles_dir(1) = 'C:\Users\qnreo\AppData\Local\Temp\WB_qnreo_12852_2\wbnew_files\user_files\'
/com,--- Data in consistent BIN units. See Solving Units in the help system for more information.
/units,BIN
/nopr
/wb,file,start              !  signify a WB generated input file
/prep7
! Turn off shape checking because checks already performed inside WB mesher.
! See help system for more information.
SHPP,OFF,,NOWARN
/nolist
etcon,set             ! allow ANSYS to choose best KEYOP's for 180x elements, resets any applicable keyopt to MAPDL defaults
/com,*********** Nodes for the whole assembly ***********
nblock,3,,794
(1i9,3e20.9e3)
        1     2.500000000E+00     1.530000000E+00     0.000000000E+00
        2     2.500000000E+00     1.470000000E+00     0.000000000E+00
        3     3.500000000E+00     1.470000000E+00     0.000000000E+00
        4     2.600000000E+00     1.470000000E+00     0.000000000E+00
        5     2.700000000E+00     1.470000000E+00     0.000000000E+00
        6     2.800000000E+00     1.470000000E+00     0.000000000E+00
        7     2.900000000E+00     1.470000000E+00     0.000000000E+00
        8     3.000000000E+00     1.470000000E+00     0.000000000E+00
        9     3.100000000E+00     1.470000000E+00     0.000000000E+00
       10     3.200000000E+00     1.470000000E+00     0.000000000E+00
       11     3.300000000E+00     1.470000000E+00     0.000000000E+00
       12     3.400000000E+00     1.470000000E+00     0.000000000E+00
       13     3.500000000E+00     1.530000000E+00     0.000000000E+00
       14     3.400000000E+00     1.530000000E+00     0.000000000E+00
       15     3.300000000E+00     1.530000000E+00     0.000000000E+00
       16     3.200000000E+00     1.530000000E+00     0.000000000E+00
       17     3.100000000E+00     1.530000000E+00     0.000000000E+00
       18     3.000000000E+00     1.530000000E+00     0.000000000E+00
       19     2.900000000E+00     1.530000000E+00     0.000000000E+00
       20     2.800000000E+00     1.530000000E+00     0.000000000E+00
! ... 703 like lines cut
/wb,elem,start            !  set before creation of elements
/com,*********** Elements for Body 1 "Surface Body" ***********
et,1,182
keyo,1,3,3
eblock,19,solid,,630
(19i9)
        1        1        1        1        0        0        0        0        4        0        1      669      572      474      474
        1        1        1        1        0        0        0        0        4        0        2      444      568      633      633
        1        1        1        1        0        0        0        0        4        0        3      388      232      699      699
        1        1        1        1        0        0        0        0        4        0        4      227      231      236      236
        1        1        1        1        0        0        0        0        4        0        5      608      216      413      413
        1        1        1        1        0        0        0        0        4        0        6      578      655      678      678
        1        1        1        1        0        0        0        0        4        0        7      307      191      308      457
        1        1        1        1        0        0        0        0        4        0        8      307      163      164      191
        1        1        1        1        0        0        0        0        4        0        9      191      164      165      308
        1        1        1        1        0        0        0        0        4        0       10      586      665      484      261
        1        1        1        1        0        0        0        0        4        0       11      586      192      260      665
        1        1        1        1        0        0        0        0        4        0       12      395      261      484      363
        1        1        1        1        0        0        0        0        4        0       13      260      192      193      405
        1        1        1        1        0        0        0        0        4        0       14      586      680      333      192
        1        1        1        1        0        0        0        0        4        0       15      193      192      333      202
        1        1        1        1        0        0        0        0        4        0       16      202      402      405      193
        1        1        1        1        0        0        0        0        4        0       17      469      640      366      562
        1        1        1        1        0        0        0        0        4        0       18      242      366      640      199
        1        1        1        1        0        0        0        0        4        0       19      654      194      195      522
        1        1        1        1        0        0        0        0        4        0       20      682      270      194      654
! ... 611 like lines cut
!Material Id = {FED7BE63-0ACE-4F93-86FF-246C2B483C01}
/wb,elem,end               !  done creating elements
/com,*********** Send User Defined Coordinate System(s) ***********
csys,0
toffst,459.67,  ! Temperature offset from absolute zero
/com,*********** Set Reference Temperature ***********
tref,71.6
/wb,mat,start              !  starting to send materials
/com,*********** Send Materials ***********
Temperature = 'TEMP' ! Temperature
MP,DENS,1,0.000262377421405648,	! slinch in^-3
MP,ALPX,1,6.66666666666667e-06,	! F^-1
MP,C,1,373722.969668162,	! in^2 s^-2 F^-1
MP,KXX,1,7.55607836445752,	! slinch in s^-3 F^-1
MP,RSVX,1,8.52348993288591,	! ohm cmil in^-1
MP,EX,1,29007547.5428236,	! slinch s^-2 in^-1
MP,NUXY,1,0.3,
MP,MURX,1,10000,
MP,UVID,1,a9222b71-b17c-4a7e-b4b0-7857bb179142
MP,UMID,1,9f277618-9d4d-4711-a9da-b8ef39f3a2c1

/wb,mat,end                !  done sending materials
/com,*********** Send Sheet Properties ***********
r,1,6.e-002

!************************* Model Summary ********************
!Surface Body,	Structural Steel 2,	matid,	1
!************************* End Model Summary ********************
! get the diagonal of the bounding box. Needed later for other things
*get,_xmin,node,,mnloc,x
*get,_ymin,node,,mnloc,y
*get,_zmin,node,,mnloc,z
*get,_xmax,node,,mxloc,x
*get,_ymax,node,,mxloc,y
*get,_zmax,node,,mxloc,z
_ASMDIAG=(_xmax-_xmin)*(_xmax-_xmin)+(_ymax-_ymin)*(_ymax-_ymin)+(_zmax-_zmin)*(_zmax-_zmin)
_ASMDIAG=SQRT(_ASMDIAG)
/wb,contact,start          !  starting to send contact
/wb,contact,end            !  done creating contacts
/golist
/wb,load,start             !  starting to send loads
/com,*********** Fixed Supports ***********
CMBLOCK,_FIXEDSU,NODE,       57
(8i10)
        23        52        53        54        55        56        57        58
        59        60        61        62        63        64        65        66
        67        68        69        70        71        72        73        74
        75        76        77        78        79        80        81        82
        83        84        85        86        87        88        89        90
        91        92        93        94        95        96        97        98
        99       100       101       102       103       104       105       106
       107
cmsel,s,_FIXEDSU
d,all,all
nsel,all
/com,*********** Define Force Using Surface Effect Elements ***********
local,12,0,0.,0.,0.,0.,0.,0.
csys,0
et,2,153
keyop,2,3,10        ! get plane stress option and thickness from underlying element
eblock,10,,,56
(15i9)
      631        2        2        2       12      164      163
      632        2        2        2       12      165      164
      633        2        2        2       12      137      136
      634        2        2        2       12      138      137
      635        2        2        2       12      139      138
      636        2        2        2       12      140      139
      637        2        2        2       12      141      140
      638        2        2        2       12      142      141
      639        2        2        2       12      143      142
      640        2        2        2       12      144      143
      641        2        2        2       12      145      144
      642        2        2        2       12      146      145
      643        2        2        2       12      147      146
      644        2        2        2       12      148      147
      645        2        2        2       12      149      148
      646        2        2        2       12      150      149
      647        2        2        2       12      151      150
      648        2        2        2       12      152      151
      649        2        2        2       12      153      152
      650        2        2        2       12      154      153
! ... 37 like lines cut
esel,s,type,,2
keyop,2,2,1                ! Apply load in local coordinate system
keyop,2,7,1                ! Use original area so load is constant in large deformation
keyop,2,11,2               ! Use real and not project area
esel,all
/gst,on,on
fini
*get,_numnode,node,0,count
*get,_numelem,elem,0,count
*get, _MAXELEMNUM, elem, 0, NUM, MAX
*get, _MAXNODENUM, node, 0, NUM, MAX
*get, _MAXELEMTYPE, etyp, 0, NUM, MAX
*get, _MAXREALCONST, rcon, 0, NUM, MAX
/go
/wb,load,end               !  done creating loads
/com,--- Number of total nodes = %_numnode%
/com,--- Number of contact elements = 56
/com,--- Number of spring elements = 0
/com,--- Number of bearing elements = 0
/com,--- Number of solid elements = 630
/com,--- Number of condensed parts = 0
/com,--- Number of total elements = %_numelem%
*get,_wallbsol,active,,time,wall
/com,****************************************************************************
/com,*************************    SOLUTION       ********************************
/com,****************************************************************************
/solu
antype,0                   ! static analysis
_thickRatio=  0     ! Ratio of thick parts in the model
eqsl,sparse,,,,,1
cntr,print,1               ! print out contact info and also make no initial contact an error
cncheck,dmp		!	Enable program controlled contact splitting for distributed memory parallel run
dmpoption,emat,no             ! Don't combine emat file for DANSYS
dmpoption,esav,no             ! Don't combine esav file for DANSYS
nldiag,cont,iter           ! print out contact info each equilibrium iteration
rescontrol,,none                 ! Do not keep any restart files
/com,****************************************************
/com,******************* SOLVE FOR LS 1 OF 1 ****************
esel,s,type,,2
nsle
sfe,all,1,pres,1,0.
sfe,all,2,pres,1,-157130.555528921
nsel,all
esel,all
/nopr
/gopr
nsub,1,1,1
time,1.
outres,erase
outres,all,none
outres,nsol,all,
outres,rsol,all
outres,eangl,all
outres,etmp,all
outres,veng,all
outres,strs,all,
outres,epel,all,
outres,eppl,all,
outres,cont,all,
! *********** WB SOLVE COMMAND ***********
! check interactive state
*get,ANSINTER_,active,,int
*if,ANSINTER_,ne,0,then
/eof
*endif
solve
/com *************** Write FE CONNECTORS ********* 
CEWRITE,file,ce,,INTE
/com,****************************************************
/com,*************** FINISHED SOLVE FOR LS 1 *************
*get,_wallasol,active,,time,wall
/nopr
*get,_numnode,node,0,count
*get,_numelem,elem,0,count
*get, _MAXELEMNUM, elem, 0, NUM, MAX
*get, _MAXNODENUM, node, 0, NUM, MAX,,,INTERNAL
*get, _MAXELEMTYPE, etyp, 0, NUM, MAX
*get, _MAXREALCONST, rcon, 0, NUM, MAX
*get,_NSOLTHREADS,active,0,ntfs
*get,_NSOLPROCESSES,active,0,npfs
/gopr
/post1
xmlo,ENCODING,ISO-8859-1
xmlo,parm
/xml,parm,xml
fini
/gopr
*get,_walldone,active,,time,wall
_preptime=(_wallbsol-_wallstrt)*3600
_solvtime=(_wallasol-_wallbsol)*3600
_posttime=(_walldone-_wallasol)*3600
_totaltim=(_walldone-_wallstrt)*3600
*get,_dlbratio,active,0,solu,dlbr
*get,_combtime,active,0,solu,comb
*get,_ssmode,active,0,solu,ssmm
*get,_ndofs,active,0,solu,ndof
*get,_sol_end_time,active,0,set,time
*if,_sol_end_time,eq,1.000000,then
/fclean				!clean distributed files
*endif
/com,--- Total number of nodes = %_numnode%
/com,--- Total number of elements = %_numelem%
/com,--- Element load balance ratio = %_dlbratio%
/com,--- Time to combine distributed files = %_combtime%
/com,--- Sparse memory mode = %_ssmode%
/com,--- Number of DOF = %_ndofs%
/wb,file,end               ! done with WB generated input
