/batch
/config,noeldb,1     ! force off writing results to database
*get,_wallstrt,active,,time,wall
! ANSYS input file written by Workbench version 2024 R1
! File used for geometry attach: C:\Users\qnreo\OneDrive\Desktop\222_files\dp0\SYS-1\DM\SYS-1.agdb
/title,222--Static Structural (B5)
! ****** Begin Custom Load Command Snippet ******
/COM, ACT Extensions:
/COM,     LSDYNA, 2024.1
/COM,     5f463412-bd3e-484b-87e7-cbc0a665e474, wbex
/COM,/COM,     ANSYSMotion, 2024.1
/COM,     20180725-3f81-49eb-9f31-41364844c769, wbex
/COM,
! ****** End   Custom Load Command Snippet ******
*DIM,_wb_ProjectScratch_dir,string,248
_wb_ProjectScratch_dir(1) = 'C:\Users\qnreo\OneDrive\Desktop\_ProjectScratch\ScrE139\'
*DIM,_wb_SolverFiles_dir,string,248
_wb_SolverFiles_dir(1) = 'C:\Users\qnreo\OneDrive\Desktop\222_files\dp0\SYS-1\MECH\'
*DIM,_wb_userfiles_dir,string,248
_wb_userfiles_dir(1) = 'C:\Users\qnreo\OneDrive\Desktop\222_files\user_files\'
/com,--- Data in consistent NMM units. See Solving Units in the help system for more information.
/units,MPA
/nopr
/wb,file,start              !  signify a WB generated input file
/prep7
! Turn off shape checking because checks already performed inside WB mesher.
! See help system for more information.
SHPP,OFF,,NOWARN
/nolist
etcon,set             ! allow ANSYS to choose best KEYOP's for 180x elements, resets any applicable keyopt to MAPDL defaults
/com,*********** Nodes for the whole assembly ***********
nblock,3,,3697
(1i9,3e20.9e3)
        1    -2.266686451E+01     1.513658478E+01     2.500000000E+01
        2    -2.266686451E+01     1.513658478E+01     2.000000000E+01
        3    -2.266686451E+01     1.513658478E+01     1.500000000E+01
        4    -2.266686451E+01     1.513658478E+01     1.000000000E+01
        5    -2.266686451E+01     1.513658478E+01     5.000000000E+00
        6    -2.911104268E+01     1.502012925E+01     2.500000000E+01
        7    -2.911104268E+01     1.502012925E+01     2.000000000E+01
        8    -2.911104268E+01     1.502012925E+01     1.500000000E+01
        9    -2.911104268E+01     1.502012925E+01     1.000000000E+01
       10    -2.911104268E+01     1.502012925E+01     5.000000000E+00
       11    -1.630926270E+01     1.498210416E+01     2.500000000E+01
       12    -1.630926270E+01     1.498210416E+01     2.000000000E+01
       13    -1.630926270E+01     1.498210416E+01     1.500000000E+01
       14    -1.630926270E+01     1.498210416E+01     1.000000000E+01
       15    -1.630926270E+01     1.498210416E+01     5.000000000E+00
       16     1.086660062E+01     1.471609474E+01     2.500000000E+01
       17     1.086660062E+01     1.471609474E+01     2.000000000E+01
       18     1.086660062E+01     1.471609474E+01     1.500000000E+01
       19     1.086660062E+01     1.471609474E+01     1.000000000E+01
       20     1.086660062E+01     1.471609474E+01     5.000000000E+00
! ... 3342 like lines cut
/wb,elem,start            !  set before creation of elements
/com,*********** Elements for Body 1 "Solid" ***********
et,1,186
keyo,1,2,1          ! set full integration on SOLID186
eblock,19,solid,,624
(19i9)
        1        1        1        1        0        0        0        0       20        0        1        1      141      146        6      468      440      439      467
      929     1484      954      926     2440     2437     2438     2478      930     1486     1502      955
        1        1        1        1        0        0        0        0       20        0        2        1        6      146      141        2        7      147      142
      926      954     1484      929      932      959     1488      935      925      951     1499     1483
        1        1        1        1        0        0        0        0       20        0        3        2        7      147      142        3        8      148      143
      932      959     1488      935      937      963     1491      940      931      956     1503     1487
        1        1        1        1        0        0        0        0       20        0        4        3        8      148      143        4        9      149      144
      937      963     1491      940      942      967     1494      945      936      960     1506     1490
        1        1        1        1        0        0        0        0       20        0        5        4        9      149      144        5       10      150      145
      942      967     1494      945      946      970     1496      949      941      964     1509     1493
        1        1        1        1        0        0        0        0       20        0        6        5       10      150      145      469      470      498      497
      946      970     1496      949     2479     2485     2557     2482      950      971     1514     1498
        1        1        1        1        0        0        0        0       20        0        7        1        6       96      101      468      467      449      448
      926      953     1330      928     2478     2456     2453     2454      930      955     1332     1348
        1        1        1        1        0        0        0        0       20        0        8        1      101       96        6        2      102       97        7
      928     1330      953      926      934     1334      958      932      925     1345     1329      951
        1        1        1        1        0        0        0        0       20        0        9        2      102       97        7        3      103       98        8
      934     1334      958      932      939     1337      962      937      931     1349     1333      956
        1        1        1        1        0        0        0        0       20        0       10        3      103       98        8        4      104       99        9
      939     1337      962      937      944     1340      966      942      936     1352     1336      960
! ... 1229 like lines cut
!Material Id = {26C7E96B-EF77-4F5D-841A-75BF729011E2}
/wb,elem,end               !  done creating elements
/com,*********** Send User Defined Coordinate System(s) ***********
csys,0
toffst,273.15,  ! Temperature offset from absolute zero
/com,*********** Set Reference Temperature ***********
tref,22.
/wb,mat,start              !  starting to send materials
/com,*********** Send Materials ***********
Temperature = 'TEMP' ! Temperature
MP,DENS,1,7.85e-09,	! tonne mm^-3
MP,ALPX,1,1.2e-05,	! C^-1
MP,C,1,434000000,	! mm^2 s^-2 C^-1
MP,KXX,1,60.5,	! tonne mm s^-3 C^-1
MP,RSVX,1,0.00017,	! ohm mm
MP,EX,1,200000,	! tonne s^-2 mm^-1
MP,NUXY,1,0.3,
MP,MURX,1,10000,
MP,UVID,1,d4deed02-e64c-4896-963e-8326b5ce7c6d
MP,UMID,1,7918e4c2-3563-4788-8e8b-05553f20fb9c

/wb,mat,end                !  done sending materials
!************************* Model Summary ********************
!Solid,	Structural Steel 2,	matid,	1
!************************* End Model Summary ********************
! get the diagonal of the bounding box. Needed later for other things
*get,_xmin,node,,mnloc,x
*get,_ymin,node,,mnloc,y
*get,_zmin,node,,mnloc,z
*get,_xmax,node,,mxloc,x
*get,_ymax,node,,mxloc,y
*get,_zmax,node,,mxloc,z
_ASMDIAG=(_xmax-_xmin)*(_xmax-_xmin)+(_ymax-_ymin)*(_ymax-_ymin)+(_zmax-_zmin)*(_zmax-_zmin)
_ASMDIAG=SQRT(_ASMDIAG)
/wb,contact,start          !  starting to send contact
/wb,contact,end            !  done creating contacts
/golist
/wb,load,start             !  starting to send loads
/com,*********** Fixed Supports ***********
CMBLOCK,_FIXEDSU,NODE,      133
(8i10)
       567       568       569       570       571       572       581       763
       764       765       766       767       768       769       770       771
       772       773       774       775       776       777       778       779
       780       781       782       783       784       785       786       787
       788       789       790       791       792       793       794       795
       796       797       798       799       800       801       802       803
       804      2701      2702      2703      2704      2705      2706      2707
      2708      2709      2710      2711      2712      2730      3071      3072
      3073      3074      3075      3076      3077      3078      3079      3080
      3081      3082      3083      3084      3085      3086      3087      3088
      3089      3090      3091      3092      3093      3094      3095      3096
      3097      3098      3099      3100      3101      3102      3103      3104
      3105      3106      3107      3108      3109      3110      3111      3112
      3113      3114      3115      3116      3117      3118      3119      3120
      3121      3122      3123      3124      3125      3126      3127      3128
      3129      3130      3131      3132      3133      3134      3135      3136
      3137      3139      3141      3143      3145
cmsel,s,_FIXEDSU
d,all,all
nsel,all
/com,*********** Define Force Using Surface Effect Elements ***********
local,12,0,0.,0.,0.,0.,0.,0.
csys,0
et,2,154
mat,2
eblock,10,,,36
(15i9)
     1157        2        2        2       12      630      601      641      642     2770     2771     2848     2828
     1158        2        2        2       12      629      606      601      630     2785     2769     2770     2827
     1159        2        2        2       12      628      611      606      629     2795     2784     2785     2826
     1160        2        2        2       12      627      616      611      628     2805     2794     2795     2825
     1161        2        2        2       12      626      621      616      627     2814     2804     2805     2823
     1162        2        2        2       12      636      635      621      626     2837     2815     2814     2824
     1163        2        2        2       12      601      602      640      641     2768     2774     2846     2771
     1164        2        2        2       12      606      607      602      601     2783     2773     2768     2769
     1165        2        2        2       12      611      612      607      606     2793     2787     2783     2784
     1166        2        2        2       12      616      617      612      611     2803     2797     2793     2794
     1167        2        2        2       12      621      622      617      616     2813     2807     2803     2804
     1168        2        2        2       12      635      634      622      621     2835     2817     2813     2815
     1169        2        2        2       12      602      603      639      640     2772     2777     2844     2774
     1170        2        2        2       12      607      608      603      602     2786     2776     2772     2773
     1171        2        2        2       12      612      613      608      607     2796     2789     2786     2787
     1172        2        2        2       12      617      618      613      612     2806     2799     2796     2797
     1173        2        2        2       12      622      623      618      617     2816     2809     2806     2807
     1174        2        2        2       12      634      633      623      622     2833     2819     2816     2817
     1175        2        2        2       12      603      604      638      639     2775     2780     2842     2777
     1176        2        2        2       12      608      609      604      603     2788     2779     2775     2776
! ... 17 like lines cut
esel,s,type,,2
keyop,2,2,1                ! Apply load in local coordinate system
keyop,2,7,1                ! Use original area so load is constant in large deformation
esel,all
/gst,on,on
fini
*get,_numnode,node,0,count
*get,_numelem,elem,0,count
*get, _MAXELEMNUM, elem, 0, NUM, MAX
*get, _MAXNODENUM, node, 0, NUM, MAX
*get, _MAXELEMTYPE, etyp, 0, NUM, MAX
*get, _MAXREALCONST, rcon, 0, NUM, MAX
/go
/wb,load,end               !  done creating loads
/com,--- Number of total nodes = %_numnode%
/com,--- Number of contact elements = 36
/com,--- Number of spring elements = 0
/com,--- Number of bearing elements = 0
/com,--- Number of solid elements = 624
/com,--- Number of condensed parts = 0
/com,--- Number of total elements = %_numelem%
*get,_wallbsol,active,,time,wall
/com,****************************************************************************
/com,*************************    SOLUTION       ********************************
/com,****************************************************************************
/solu
antype,0                   ! static analysis
_thickRatio=  1     ! Ratio of thick parts in the model
eqsl,pcg,1e-8,,,,,,1
cntr,print,1               ! print out contact info and also make no initial contact an error
cncheck,dmp		!	Enable program controlled contact splitting for distributed memory parallel run
dmpoption,emat,no             ! Don't combine emat file for DANSYS
dmpoption,esav,no             ! Don't combine esav file for DANSYS
nldiag,cont,iter           ! print out contact info each equilibrium iteration
rescontrol,,none                 ! Do not keep any restart files
/com,****************************************************
/com,******************* SOLVE FOR LS 1 OF 1 ****************
esel,s,type,,2
nsle
sfe,all,1,pres,1,747.777777777834
sfe,all,2,pres,1,0.
sfe,all,3,pres,1,0.
nsel,all
esel,all
/nopr
/gopr
nsub,1,1,1
time,1.
outres,erase
outres,all,none
outres,nsol,all,
outres,rsol,all
outres,eangl,all
outres,etmp,all
outres,veng,all
outres,strs,all,
outres,epel,all,
outres,eppl,all,
outres,cont,all,
! *********** WB SOLVE COMMAND ***********
! check interactive state
*get,ANSINTER_,active,,int
*if,ANSINTER_,ne,0,then
/eof
*endif
solve
/com *************** Write FE CONNECTORS ********* 
CEWRITE,file,ce,,INTE
/com,****************************************************
/com,*************** FINISHED SOLVE FOR LS 1 *************
*get,_wallasol,active,,time,wall
/nopr
*get,_numnode,node,0,count
*get,_numelem,elem,0,count
*get, _MAXELEMNUM, elem, 0, NUM, MAX
*get, _MAXNODENUM, node, 0, NUM, MAX,,,INTERNAL
*get, _MAXELEMTYPE, etyp, 0, NUM, MAX
*get, _MAXREALCONST, rcon, 0, NUM, MAX
*get,_NSOLTHREADS,active,0,ntfs
*get,_NSOLPROCESSES,active,0,npfs
/gopr
*get,_PCGITER,active,,solu,cgiter
/post1
xmlo,ENCODING,ISO-8859-1
xmlo,parm
/xml,parm,xml
fini
/gopr
*get,_walldone,active,,time,wall
_preptime=(_wallbsol-_wallstrt)*3600
_solvtime=(_wallasol-_wallbsol)*3600
_posttime=(_walldone-_wallasol)*3600
_totaltim=(_walldone-_wallstrt)*3600
*get,_dlbratio,active,0,solu,dlbr
*get,_combtime,active,0,solu,comb
*get,_ssmode,active,0,solu,ssmm
*get,_ndofs,active,0,solu,ndof
*get,_sol_end_time,active,0,set,time
*if,_sol_end_time,eq,1.000000,then
/fclean				!clean distributed files
*endif
/com,--- Total number of nodes = %_numnode%
/com,--- Total number of elements = %_numelem%
/com,--- Element load balance ratio = %_dlbratio%
/com,--- Time to combine distributed files = %_combtime%
/com,--- Sparse memory mode = %_ssmode%
/com,--- Number of DOF = %_ndofs%
/wb,file,end               ! done with WB generated input
