/batch
/config,noeldb,1     ! force off writing results to database
*get,_wallstrt,active,,time,wall
! ANSYS input file written by Workbench version 2024 R1
! File used for geometry attach: C:\Users\qnreo\AppData\Local\Temp\WB_qnreo_10260_2\wbnew_files\dp0\SYS\DM\SYS.agdb
/title,wbnew--Static Structural (A5)
! ****** Begin Custom Load Command Snippet ******
/COM, ACT Extensions:
/COM,     LSDYNA, 2024.1
/COM,     5f463412-bd3e-484b-87e7-cbc0a665e474, wbex
/COM,/COM,     ANSYSMotion, 2024.1
/COM,     20180725-3f81-49eb-9f31-41364844c769, wbex
/COM,
! ****** End   Custom Load Command Snippet ******
*DIM,_wb_ProjectScratch_dir,string,248
_wb_ProjectScratch_dir(1) = 'C:\Users\qnreo\AppData\Local\Temp\WB_qnreo_10260_2\_ProjectScratch\Scr468C\'
*DIM,_wb_SolverFiles_dir,string,248
_wb_SolverFiles_dir(1) = 'C:\Users\qnreo\AppData\Local\Temp\WB_qnreo_10260_2\wbnew_files\dp0\SYS\MECH\'
*DIM,_wb_userfiles_dir,string,248
_wb_userfiles_dir(1) = 'C:\Users\qnreo\AppData\Local\Temp\WB_qnreo_10260_2\wbnew_files\user_files\'
/com,--- Data in consistent NMM units. See Solving Units in the help system for more information.
/units,MPA
/nopr
/wb,file,start              !  signify a WB generated input file
/prep7
! Turn off shape checking because checks already performed inside WB mesher.
! See help system for more information.
SHPP,OFF,,NOWARN
/nolist
etcon,set             ! allow ANSYS to choose best KEYOP's for 180x elements, resets any applicable keyopt to MAPDL defaults
/com,*********** Nodes for the whole assembly ***********
nblock,3,,3950
(1i9,3e20.9e3)
        1     9.473684211E+01     5.000000000E+00     5.000000000E+00
        2     9.473684211E+01     5.000000000E+00     1.000000000E+01
        3     9.473684211E+01     5.000000000E+00     1.500000000E+01
        4     9.473684211E+01     5.000000000E+00     2.000000000E+01
        5     9.473684211E+01     5.000000000E+00     2.500000000E+01
        6     8.947368421E+01     5.000000000E+00     5.000000000E+00
        7     8.947368421E+01     5.000000000E+00     1.000000000E+01
        8     8.947368421E+01     5.000000000E+00     1.500000000E+01
        9     8.947368421E+01     5.000000000E+00     2.000000000E+01
       10     8.947368421E+01     5.000000000E+00     2.500000000E+01
       11     8.421052632E+01     5.000000000E+00     5.000000000E+00
       12     8.421052632E+01     5.000000000E+00     1.000000000E+01
       13     8.421052632E+01     5.000000000E+00     1.500000000E+01
       14     8.421052632E+01     5.000000000E+00     2.000000000E+01
       15     8.421052632E+01     5.000000000E+00     2.500000000E+01
       16     7.894736842E+01     5.000000000E+00     5.000000000E+00
       17     7.894736842E+01     5.000000000E+00     1.000000000E+01
       18     7.894736842E+01     5.000000000E+00     1.500000000E+01
       19     7.894736842E+01     5.000000000E+00     2.000000000E+01
       20     7.894736842E+01     5.000000000E+00     2.500000000E+01
! ... 3572 like lines cut
/wb,elem,start            !  set before creation of elements
/com,*********** Elements for Body 1 "Solid" ***********
et,1,186
keyo,1,2,1          ! set full integration on SOLID186
eblock,19,solid,,684
(19i9)
        1        1        1        1        0        0        0        0       20        0        1        1      841      832      723      540      862      831      830
      986     3326     3128      985     2738     3324     3322     2737      984     3348     3323     3127
        1        1        1        1        0        0        0        0       20        0        2        1      723      832      841        2      741      833      846
      985     3128     3326      986      990     3181     3328      991      981     3126     3325     3347
        1        1        1        1        0        0        0        0       20        0        3        2      741      833      846        3      759      834      851
      990     3181     3328      991      995     3217     3330      996      987     3180     3327     3358
        1        1        1        1        0        0        0        0       20        0        4        3      759      834      851        4      777      835      856
      995     3217     3330      996     1000     3253     3332     1001      992     3216     3329     3368
        1        1        1        1        0        0        0        0       20        0        5        4      777      835      856        5      795      836      861
     1000     3253     3332     1001     1005     3288     3333     1006      997     3252     3331     3378
        1        1        1        1        0        0        0        0       20        0        6        5      795      836      861      541      656      655      654
     1005     3288     3333     1006     2742     2991     2989     2741     1004     2994     2992     2990
        1        1        1        1        0        0        0        0       20        0        7        1       91      840      841      540      522      863      862
      983     1368     3344      986     2700     2701     3384     2738      984     1367     3346     3348
        1        1        1        1        0        0        0        0       20        0        8        1      841      840       91        2      846      845       92
      986     3344     1368      983      991     3356     1372      989      981     3347     3345     1364
        1        1        1        1        0        0        0        0       20        0        9        2      846      845       92        3      851      850       93
      991     3356     1372      989      996     3366     1376      994      987     3358     3357     1369
        1        1        1        1        0        0        0        0       20        0       10        3      851      850       93        4      856      855       94
      996     3366     1376      994     1001     3376     1380      999      992     3368     3367     1373
! ... 1349 like lines cut
!Material Id = {484A00A6-E774-46E7-83D8-17E0F21480E6}
/wb,elem,end               !  done creating elements
/com,*********** Send User Defined Coordinate System(s) ***********
csys,0
toffst,273.15,  ! Temperature offset from absolute zero
/com,*********** Set Reference Temperature ***********
tref,22.
/wb,mat,start              !  starting to send materials
/com,*********** Send Materials ***********
Temperature = 'TEMP' ! Temperature
MP,DENS,1,7.85e-09,	! tonne mm^-3
MP,ALPX,1,1.2e-05,	! C^-1
MP,C,1,434000000,	! mm^2 s^-2 C^-1
MP,KXX,1,60.5,	! tonne mm s^-3 C^-1
MP,RSVX,1,0.00017,	! ohm mm
MP,EX,1,200000,	! tonne s^-2 mm^-1
MP,NUXY,1,0.3,
MP,MURX,1,10000,
MP,UVID,1,8d105829-ab44-4bbe-af4a-14e19f602cb5
MP,UMID,1,15a2631b-5b01-4458-af09-0696c96c6744

/wb,mat,end                !  done sending materials
!************************* Model Summary ********************
!Solid,	Structural Steel 2,	matid,	1
!************************* End Model Summary ********************
! get the diagonal of the bounding box. Needed later for other things
*get,_xmin,node,,mnloc,x
*get,_ymin,node,,mnloc,y
*get,_zmin,node,,mnloc,z
*get,_xmax,node,,mxloc,x
*get,_ymax,node,,mxloc,y
*get,_zmax,node,,mxloc,z
_ASMDIAG=(_xmax-_xmin)*(_xmax-_xmin)+(_ymax-_ymin)*(_ymax-_ymin)+(_zmax-_zmin)*(_zmax-_zmin)
_ASMDIAG=SQRT(_ASMDIAG)
/wb,contact,start          !  starting to send contact
/wb,contact,end            !  done creating contacts
/golist
/wb,load,start             !  starting to send loads
/com,*********** Fixed Supports ***********
CMBLOCK,_FIXEDSU,NODE,      133
(8i10)
       674       675       676       677       678       679       680       681
       682       683       684       685       686       687       688       689
       690       691       692       693       694       695       696       697
       698       699       700       701       702       703       704       705
       706       707       708       709       710       711       712       713
       714       715       716       717       718       719       720       721
       722      3029      3030      3031      3032      3033      3034      3035
      3036      3037      3038      3039      3040      3041      3042      3043
      3044      3045      3046      3047      3048      3049      3050      3051
      3052      3053      3054      3055      3056      3057      3058      3059
      3060      3061      3062      3063      3064      3065      3066      3067
      3068      3069      3070      3071      3072      3073      3074      3075
      3076      3077      3078      3079      3080      3081      3082      3083
      3084      3085      3086      3087      3088      3089      3090      3091
      3092      3093      3094      3095      3096      3097      3098      3099
      3100      3101      3102      3103      3105      3107      3109      3111
      3114      3116      3118      3120      3122
cmsel,s,_FIXEDSU
d,all,all
nsel,all
/com,*********** Define Force Using Surface Effect Elements ***********
local,12,0,0.,0.,0.,0.,0.,0.
csys,0
et,2,154
mat,2
eblock,10,,,36
(15i9)
     1213        2        2        2       12      868      837      866      867     3337     3336     3388     3389
     1214        2        2        2       12      869      842      837      868     3351     3335     3337     3391
     1215        2        2        2       12      870      847      842      869     3361     3350     3351     3393
     1216        2        2        2       12      871      852      847      870     3371     3360     3361     3395
     1217        2        2        2       12      872      857      852      871     3380     3370     3371     3397
     1218        2        2        2       12      649      650      857      872     2979     2982     3380     2980
     1219        2        2        2       12      837      838      865      866     3334     3340     3387     3336
     1220        2        2        2       12      842      843      838      837     3349     3339     3334     3335
     1221        2        2        2       12      847      848      843      842     3359     3353     3349     3350
     1222        2        2        2       12      852      853      848      847     3369     3363     3359     3360
     1223        2        2        2       12      857      858      853      852     3379     3373     3369     3370
     1224        2        2        2       12      650      651      858      857     2981     2984     3379     2982
     1225        2        2        2       12      838      839      864      865     3338     3343     3386     3340
     1226        2        2        2       12      843      844      839      838     3352     3342     3338     3339
     1227        2        2        2       12      848      849      844      843     3362     3355     3352     3353
     1228        2        2        2       12      853      854      849      848     3372     3365     3362     3363
     1229        2        2        2       12      858      859      854      853     3381     3375     3372     3373
     1230        2        2        2       12      651      652      859      858     2983     2986     3381     2984
     1231        2        2        2       12      839      840      863      864     3341     3346     3385     3343
     1232        2        2        2       12      844      845      840      839     3354     3345     3341     3342
! ... 17 like lines cut
esel,s,type,,2
keyop,2,2,1                ! Apply load in local coordinate system
keyop,2,7,1                ! Use original area so load is constant in large deformation
esel,all
/gst,on,on
fini
*get,_numnode,node,0,count
*get,_numelem,elem,0,count
*get, _MAXELEMNUM, elem, 0, NUM, MAX
*get, _MAXNODENUM, node, 0, NUM, MAX
*get, _MAXELEMTYPE, etyp, 0, NUM, MAX
*get, _MAXREALCONST, rcon, 0, NUM, MAX
/go
/wb,load,end               !  done creating loads
/com,--- Number of total nodes = %_numnode%
/com,--- Number of contact elements = 36
/com,--- Number of spring elements = 0
/com,--- Number of bearing elements = 0
/com,--- Number of solid elements = 684
/com,--- Number of condensed parts = 0
/com,--- Number of total elements = %_numelem%
*get,_wallbsol,active,,time,wall
/com,****************************************************************************
/com,*************************    SOLUTION       ********************************
/com,****************************************************************************
/solu
antype,0                   ! static analysis
_thickRatio=  1     ! Ratio of thick parts in the model
eqsl,pcg,1e-8,,,,,,1
cntr,print,1               ! print out contact info and also make no initial contact an error
cncheck,dmp		!	Enable program controlled contact splitting for distributed memory parallel run
dmpoption,emat,no             ! Don't combine emat file for DANSYS
dmpoption,esav,no             ! Don't combine esav file for DANSYS
nldiag,cont,iter           ! print out contact info each equilibrium iteration
rescontrol,,none                 ! Do not keep any restart files
/com,****************************************************
/com,******************* SOLVE FOR LS 1 OF 1 ****************
esel,s,type,,2
nsle
sfe,all,1,pres,1,747.777777777834
sfe,all,2,pres,1,0.
sfe,all,3,pres,1,0.
nsel,all
esel,all
/nopr
/gopr
nsub,1,1,1
time,1.
outres,erase
outres,all,none
outres,nsol,all,
outres,rsol,all
outres,eangl,all
outres,etmp,all
outres,veng,all
outres,strs,all,
outres,epel,all,
outres,eppl,all,
outres,cont,all,
! *********** WB SOLVE COMMAND ***********
! check interactive state
*get,ANSINTER_,active,,int
*if,ANSINTER_,ne,0,then
/eof
*endif
solve
/com *************** Write FE CONNECTORS ********* 
CEWRITE,file,ce,,INTE
/com,****************************************************
/com,*************** FINISHED SOLVE FOR LS 1 *************
*get,_wallasol,active,,time,wall
/nopr
*get,_numnode,node,0,count
*get,_numelem,elem,0,count
*get, _MAXELEMNUM, elem, 0, NUM, MAX
*get, _MAXNODENUM, node, 0, NUM, MAX,,,INTERNAL
*get, _MAXELEMTYPE, etyp, 0, NUM, MAX
*get, _MAXREALCONST, rcon, 0, NUM, MAX
*get,_NSOLTHREADS,active,0,ntfs
*get,_NSOLPROCESSES,active,0,npfs
/gopr
*get,_PCGITER,active,,solu,cgiter
/post1
xmlo,ENCODING,ISO-8859-1
xmlo,parm
/xml,parm,xml
fini
/gopr
*get,_walldone,active,,time,wall
_preptime=(_wallbsol-_wallstrt)*3600
_solvtime=(_wallasol-_wallbsol)*3600
_posttime=(_walldone-_wallasol)*3600
_totaltim=(_walldone-_wallstrt)*3600
*get,_dlbratio,active,0,solu,dlbr
*get,_combtime,active,0,solu,comb
*get,_ssmode,active,0,solu,ssmm
*get,_ndofs,active,0,solu,ndof
*get,_sol_end_time,active,0,set,time
*if,_sol_end_time,eq,1.000000,then
/fclean				!clean distributed files
*endif
/com,--- Total number of nodes = %_numnode%
/com,--- Total number of elements = %_numelem%
/com,--- Element load balance ratio = %_dlbratio%
/com,--- Time to combine distributed files = %_combtime%
/com,--- Sparse memory mode = %_ssmode%
/com,--- Number of DOF = %_ndofs%
/wb,file,end               ! done with WB generated input
